@<TRIPOS>MOLECULE
*****
  125   124     1     0     0
SMALL
No Charge or Current Charge


@<TRIPOS>ATOM
      1 C           13.4930    -0.2480     1.3230 c3         1 UNL      -0.065300
      2 C1          13.1320     0.5130     2.5990 c3         1 UNL      -0.055900
      3 C2          12.5340     1.9060     2.3230 c3         1 UNL      -0.053300
      4 C3          11.2140     1.8990     1.5220 c3         1 UNL      -0.053100
      5 C4          10.0660     1.0970     2.1590 c3         1 UNL      -0.053000
      6 C5           9.6870     1.6100     3.5570 c3         1 UNL      -0.052600
      7 C6           8.3700     0.9810     4.0380 c3         1 UNL      -0.043000
      8 C7           8.0410     1.3530     5.4910 c3         1 UNL       0.044900
      9 C8           7.8840     2.8320     5.6580 c          1 UNL       0.307100
     10 O            6.8630     3.4970     4.9670 os         1 UNL      -0.463700
     11 C9           6.7680     4.9160     4.8450 c3         1 UNL       0.107500
     12 C10          5.7480     5.5440     5.8380 c3         1 UNL       0.106700
     13 C11          6.1640     5.2600     7.3060 c3         1 UNL       0.107500
     14 O1           7.4150     5.8790     7.5990 os         1 UNL      -0.463700
     15 C12          8.0350     5.8000     8.8460 c          1 UNL       0.307100
     16 C13          9.2610     6.6200     9.1140 c3         1 UNL       0.044900
     17 C14         10.5400     5.8850     8.6870 c3         1 UNL      -0.043000
     18 C15         10.7630     5.8830     7.1650 c3         1 UNL      -0.052600
     19 C16         11.3980     7.1850     6.6610 c3         1 UNL      -0.053000
     20 C17         11.6100     7.1290     5.1440 c3         1 UNL      -0.053100
     21 C18         12.3200     8.3860     4.6330 c3         1 UNL      -0.053300
     22 C19         12.4970     8.3260     3.1120 c3         1 UNL      -0.055900
     23 C20         13.2920     9.5230     2.6040 c3         1 UNL      -0.065300
     24 O2           7.5740     5.0460     9.7460 o          1 UNL      -0.250900
     25 C21          5.7350     7.0830     5.6220 c3         1 UNL       0.107500
     26 O3           5.2530     7.4210     4.3220 os         1 UNL      -0.463700
     27 C22          5.3470     8.7100     3.7940 c          1 UNL       0.307100
     28 C23          4.7730     9.0100     2.4420 c3         1 UNL       0.044900
     29 C24          5.6830     8.5090     1.3110 c3         1 UNL      -0.043000
     30 C25          5.5500     6.9980     1.0840 c3         1 UNL      -0.052600
     31 C26          6.4680     6.5230    -0.0460 c3         1 UNL      -0.053000
     32 C27          6.3180     5.0130    -0.2700 c3         1 UNL      -0.053100
     33 C28          7.2510     4.5300    -1.3850 c3         1 UNL      -0.053300
     34 C29          7.0850     3.0230    -1.6180 c3         1 UNL      -0.055900
     35 C30          8.0080     2.5370    -2.7300 c3         1 UNL      -0.065300
     36 O4           5.9170     9.6310     4.4430 o          1 UNL      -0.250900
     37 C31          4.3150     4.9960     5.5850 c3         1 UNL       0.107500
     38 O5           4.1840     3.6280     5.9780 os         1 UNL      -0.463700
     39 C32          4.1470     2.5550     5.0800 c          1 UNL       0.307100
     40 C33          4.0590     1.1590     5.6110 c3         1 UNL       0.044900
     41 C34          2.6090     0.6740     5.7210 c3         1 UNL      -0.043000
     42 C35          2.0000     0.3490     4.3500 c3         1 UNL      -0.052600
     43 C36          0.5790    -0.2120     4.4960 c3         1 UNL      -0.053000
     44 C37         -0.1270    -0.4140     3.1440 c3         1 UNL      -0.053100
     45 C38          0.5620    -1.4090     2.1880 c3         1 UNL      -0.053300
     46 C39          0.7550    -2.8260     2.7550 c3         1 UNL      -0.055900
     47 C40         -0.5670    -3.5250     3.0630 c3         1 UNL      -0.065300
     48 O6           4.1870     2.7490     3.8350 o          1 UNL      -0.250900
     49 O7           8.7040     3.4660     6.3720 o          1 UNL      -0.250900
     50 H           14.0610    -1.1670     1.5860 hc         1 UNL       0.023000
     51 H1          14.1310     0.3770     0.6600 hc         1 UNL       0.023000
     52 H2          12.5750    -0.5530     0.7790 hc         1 UNL       0.023000
     53 H3          14.0590     0.6460     3.1970 hc         1 UNL       0.026300
     54 H4          12.4300    -0.0930     3.2120 hc         1 UNL       0.026300
     55 H5          13.2770     2.5100     1.7600 hc         1 UNL       0.026500
     56 H6          12.3760     2.4290     3.2910 hc         1 UNL       0.026500
     57 H7          11.4040     1.4980     0.5030 hc         1 UNL       0.026500
     58 H8          10.8830     2.9530     1.3910 hc         1 UNL       0.026500
     59 H9          10.3310     0.0190     2.2120 hc         1 UNL       0.026500
     60 H10          9.1830     1.1840     1.4870 hc         1 UNL       0.026500
     61 H11          9.5790     2.7170     3.5260 hc         1 UNL       0.026500
     62 H12         10.4960     1.3550     4.2770 hc         1 UNL       0.026500
     63 H13          8.4420    -0.1280     3.9680 hc         1 UNL       0.027000
     64 H14          7.5370     1.3040     3.3750 hc         1 UNL       0.027000
     65 H15          8.8380     0.9730     6.1680 hc         1 UNL       0.037700
     66 H16          7.0900     0.8620     5.7850 hc         1 UNL       0.037700
     67 H17          6.4420     5.1300     3.8080 h1         1 UNL       0.070600
     68 H18          7.7700     5.3810     4.9620 h1         1 UNL       0.070600
     69 H19          6.2360     4.1640     7.4870 h1         1 UNL       0.070600
     70 H20          5.3930     5.6660     8.0000 h1         1 UNL       0.070600
     71 H21          9.3200     6.8310    10.2050 hc         1 UNL       0.037700
     72 H22          9.1750     7.5970     8.5940 hc         1 UNL       0.037700
     73 H23         10.4910     4.8340     9.0500 hc         1 UNL       0.027000
     74 H24         11.4140     6.3510     9.1900 hc         1 UNL       0.027000
     75 H25          9.8060     5.7140     6.6330 hc         1 UNL       0.026500
     76 H26         11.4370     5.0340     6.9150 hc         1 UNL       0.026500
     77 H27         12.3760     7.3350     7.1670 hc         1 UNL       0.026500
     78 H28         10.7390     8.0430     6.9010 hc         1 UNL       0.026500
     79 H29         10.6220     7.0310     4.6380 hc         1 UNL       0.026500
     80 H30         12.2230     6.2360     4.8910 hc         1 UNL       0.026500
     81 H31         13.3170     8.4650     5.1220 hc         1 UNL       0.026500
     82 H32         11.7230     9.2860     4.9010 hc         1 UNL       0.026500
     83 H33         11.5010     8.3130     2.6200 hc         1 UNL       0.026300
     84 H34         13.0410     7.3970     2.8340 hc         1 UNL       0.026300
     85 H35         12.7720    10.4710     2.8550 hc         1 UNL       0.023000
     86 H36         13.3960     9.4540     1.4990 hc         1 UNL       0.023000
     87 H37         14.3070     9.5310     3.0500 hc         1 UNL       0.023000
     88 H38          6.7640     7.4860     5.7450 h1         1 UNL       0.070600
     89 H39          5.0850     7.5710     6.3820 h1         1 UNL       0.070600
     90 H40          4.6560    10.1110     2.3370 hc         1 UNL       0.037700
     91 H41          3.7600     8.5580     2.3590 hc         1 UNL       0.037700
     92 H42          6.7390     8.7750     1.5310 hc         1 UNL       0.027000
     93 H43          5.3950     9.0310     0.3730 hc         1 UNL       0.027000
     94 H44          4.4950     6.7550     0.8310 hc         1 UNL       0.026500
     95 H45          5.8200     6.4560     2.0100 hc         1 UNL       0.026500
     96 H46          7.5240     6.7540     0.2200 hc         1 UNL       0.026500
     97 H47          6.2130     7.0660    -0.9830 hc         1 UNL       0.026500
     98 H48          5.2640     4.7850    -0.5440 hc         1 UNL       0.026500
     99 H49          6.5660     4.4760     0.6740 hc         1 UNL       0.026500
    100 H50          8.3080     4.7470    -1.1030 hc         1 UNL       0.026500
    101 H51          7.0160     5.0770    -2.3260 hc         1 UNL       0.026500
    102 H52          6.0340     2.8030    -1.9060 hc         1 UNL       0.026300
    103 H53          7.3200     2.4670    -0.6840 hc         1 UNL       0.026300
    104 H54          7.7760     3.0630    -3.6800 hc         1 UNL       0.023000
    105 H55          7.8640     1.4510    -2.8830 hc         1 UNL       0.023000
    106 H56          9.0680     2.7210    -2.4610 hc         1 UNL       0.023000
    107 H57          4.0210     5.1360     4.5220 h1         1 UNL       0.070600
    108 H58          3.5920     5.5860     6.1890 h1         1 UNL       0.070600
    109 H59          4.5130     1.1380     6.6240 hc         1 UNL       0.037700
    110 H60          4.6530     0.4720     4.9670 hc         1 UNL       0.037700
    111 H61          1.9960     1.4420     6.2410 hc         1 UNL       0.027000
    112 H62          2.5990    -0.2470     6.3420 hc         1 UNL       0.027000
    113 H63          2.6450    -0.3980     3.8450 hc         1 UNL       0.026500
    114 H64          1.9660     1.2720     3.7300 hc         1 UNL       0.026500
    115 H65         -0.0320     0.5050     5.0900 hc         1 UNL       0.026500
    116 H66          0.5990    -1.1640     5.0660 hc         1 UNL       0.026500
    117 H67         -0.2020     0.5700     2.6290 hc         1 UNL       0.026500
    118 H68         -1.1690    -0.7470     3.3300 hc         1 UNL       0.026500
    119 H69          1.5510    -1.0070     1.8790 hc         1 UNL       0.026500
    120 H70         -0.0460    -1.4770     1.2600 hc         1 UNL       0.026500
    121 H71          1.3920    -2.8040     3.6640 hc         1 UNL       0.026300
    122 H72          1.2960    -3.4340     1.9960 hc         1 UNL       0.026300
    123 H73         -1.0830    -3.0320     3.9140 hc         1 UNL       0.023000
    124 H74         -0.3740    -4.5810     3.3460 hc         1 UNL       0.023000
    125 H75         -1.2310    -3.5170     2.1730 hc         1 UNL       0.023000
@<TRIPOS>BOND
     1     1     2 1   
     2     2     3 1   
     3     3     4 1   
     4     4     5 1   
     5     5     6 1   
     6     6     7 1   
     7     7     8 1   
     8     8     9 1   
     9     9    10 1   
    10    10    11 1   
    11    11    12 1   
    12    12    13 1   
    13    13    14 1   
    14    14    15 1   
    15    15    16 1   
    16    16    17 1   
    17    17    18 1   
    18    18    19 1   
    19    19    20 1   
    20    20    21 1   
    21    21    22 1   
    22    22    23 1   
    23    15    24 2   
    24    12    25 1   
    25    25    26 1   
    26    26    27 1   
    27    27    28 1   
    28    28    29 1   
    29    29    30 1   
    30    30    31 1   
    31    31    32 1   
    32    32    33 1   
    33    33    34 1   
    34    34    35 1   
    35    27    36 2   
    36    12    37 1   
    37    37    38 1   
    38    38    39 1   
    39    39    40 1   
    40    40    41 1   
    41    41    42 1   
    42    42    43 1   
    43    43    44 1   
    44    44    45 1   
    45    45    46 1   
    46    46    47 1   
    47    39    48 2   
    48     9    49 2   
    49     1    50 1   
    50     1    51 1   
    51     1    52 1   
    52     2    53 1   
    53     2    54 1   
    54     3    55 1   
    55     3    56 1   
    56     4    57 1   
    57     4    58 1   
    58     5    59 1   
    59     5    60 1   
    60     6    61 1   
    61     6    62 1   
    62     7    63 1   
    63     7    64 1   
    64     8    65 1   
    65     8    66 1   
    66    11    67 1   
    67    11    68 1   
    68    13    69 1   
    69    13    70 1   
    70    16    71 1   
    71    16    72 1   
    72    17    73 1   
    73    17    74 1   
    74    18    75 1   
    75    18    76 1   
    76    19    77 1   
    77    19    78 1   
    78    20    79 1   
    79    20    80 1   
    80    21    81 1   
    81    21    82 1   
    82    22    83 1   
    83    22    84 1   
    84    23    85 1   
    85    23    86 1   
    86    23    87 1   
    87    25    88 1   
    88    25    89 1   
    89    28    90 1   
    90    28    91 1   
    91    29    92 1   
    92    29    93 1   
    93    30    94 1   
    94    30    95 1   
    95    31    96 1   
    96    31    97 1   
    97    32    98 1   
    98    32    99 1   
    99    33   100 1   
   100    33   101 1   
   101    34   102 1   
   102    34   103 1   
   103    35   104 1   
   104    35   105 1   
   105    35   106 1   
   106    37   107 1   
   107    37   108 1   
   108    40   109 1   
   109    40   110 1   
   110    41   111 1   
   111    41   112 1   
   112    42   113 1   
   113    42   114 1   
   114    43   115 1   
   115    43   116 1   
   116    44   117 1   
   117    44   118 1   
   118    45   119 1   
   119    45   120 1   
   120    46   121 1   
   121    46   122 1   
   122    47   123 1   
   123    47   124 1   
   124    47   125 1   
@<TRIPOS>SUBSTRUCTURE
     1 UNL         1 TEMP              0 ****  ****    0 ROOT
