@<TRIPOS>MOLECULE
*****
  125   124     1     0     0
SMALL
No Charge or Current Charge


@<TRIPOS>ATOM
      1 C            4.1820     5.7980    -7.7680 c3         1 UNL      -0.065300
      2 C1           4.9140     5.6060    -6.4420 c3         1 UNL      -0.055900
      3 C2           5.7380     4.3110    -6.4470 c3         1 UNL      -0.053300
      4 C3           6.6160     4.1600    -5.1930 c3         1 UNL      -0.053000
      5 C4           5.8020     3.8040    -3.9390 c3         1 UNL      -0.052300
      6 C5           6.7330     3.5060    -2.7520 c3         1 UNL      -0.040400
      7 C6           5.9700     3.2660    -1.4290 c3         1 UNL       0.053600
      8 C7           5.1220     1.9870    -1.4670 c3         1 UNL      -0.052300
      9 C8           6.9440     3.1840    -0.2860 c          1 UNL       0.310000
     10 O            7.8930     2.1550    -0.2610 os         1 UNL      -0.463500
     11 C9           8.7900     1.9560     0.8290 c3         1 UNL       0.107500
     12 C10          9.7660     0.7890     0.5330 c3         1 UNL       0.106700
     13 C11         10.5690     1.0810    -0.7680 c3         1 UNL       0.107500
     14 O1          11.2510     2.3370    -0.7180 os         1 UNL      -0.463700
     15 C12         12.5980     2.4850    -0.3540 c          1 UNL       0.307100
     16 C13         13.2930     3.8040    -0.5290 c3         1 UNL       0.044900
     17 C14         12.3310     4.9980    -0.5930 c3         1 UNL      -0.043000
     18 C15         11.6640     5.2860     0.7610 c3         1 UNL      -0.052600
     19 C16         10.6920     6.4680     0.6440 c3         1 UNL      -0.053000
     20 C17          9.9260     6.6990     1.9520 c3         1 UNL      -0.053100
     21 C18          8.9840     7.9040     1.8250 c3         1 UNL      -0.053300
     22 C19          8.1510     8.0940     3.0970 c3         1 UNL      -0.055900
     23 C20          7.2190     9.2980     2.9600 c3         1 UNL      -0.065300
     24 O2          13.2640     1.4980     0.0610 o          1 UNL      -0.250900
     25 C21         10.7460     0.6300     1.7260 c3         1 UNL       0.107500
     26 O3          10.0760     0.2750     2.9380 os         1 UNL      -0.463700
     27 C22         10.0510    -1.0210     3.4740 c          1 UNL       0.307100
     28 C23          9.4890    -1.2670     4.8450 c3         1 UNL       0.044900
     29 C24          8.5480    -0.1520     5.3240 c3         1 UNL      -0.043000
     30 C25          7.2310    -0.1290     4.5340 c3         1 UNL      -0.052600
     31 C26          6.3410     1.0270     5.0050 c3         1 UNL      -0.053000
     32 C27          5.0250     1.0720     4.2180 c3         1 UNL      -0.053100
     33 C28          4.1350     2.2210     4.7130 c3         1 UNL      -0.053300
     34 C29          2.8300     2.2950     3.9110 c3         1 UNL      -0.055900
     35 C30          1.9460     3.4330     4.4080 c3         1 UNL      -0.065300
     36 O4          10.5640    -1.9860     2.8460 o          1 UNL      -0.250900
     37 C31          8.9500    -0.5120     0.3250 c3         1 UNL       0.107500
     38 O5           9.8160    -1.6350     0.1630 os         1 UNL      -0.463700
     39 C32          9.3530    -2.9060    -0.1870 c          1 UNL       0.307100
     40 C33         10.2710    -4.0890    -0.0860 c3         1 UNL       0.044900
     41 C34         11.3980    -4.0400    -1.1330 c3         1 UNL      -0.043000
     42 C35         12.5710    -3.1140    -0.7570 c3         1 UNL      -0.052600
     43 C36         13.4100    -3.6580     0.4150 c3         1 UNL      -0.053000
     44 C37         14.7640    -2.9380     0.5550 c3         1 UNL      -0.053100
     45 C38         14.6410    -1.5130     1.1410 c3         1 UNL      -0.053300
     46 C39         15.1530    -1.4030     2.5840 c3         1 UNL      -0.055900
     47 C40         14.2590    -2.1350     3.5830 c3         1 UNL      -0.065300
     48 O6           8.1620    -3.0680    -0.5740 o          1 UNL      -0.250900
     49 O7           6.9160     4.0540     0.6280 o          1 UNL      -0.250500
     50 H            3.5930     6.7400    -7.7380 hc         1 UNL       0.023000
     51 H1           3.4870     4.9500    -7.9540 hc         1 UNL       0.023000
     52 H2           4.9130     5.8640    -8.6010 hc         1 UNL       0.023000
     53 H3           4.1650     5.5790    -5.6220 hc         1 UNL       0.026300
     54 H4           5.5830     6.4790    -6.2760 hc         1 UNL       0.026300
     55 H5           6.4080     4.3170    -7.3350 hc         1 UNL       0.026500
     56 H6           5.0600     3.4330    -6.5410 hc         1 UNL       0.026500
     57 H7           7.1970     5.0940    -5.0210 hc         1 UNL       0.026500
     58 H8           7.3450     3.3420    -5.3870 hc         1 UNL       0.026500
     59 H9           5.1800     2.9110    -4.1610 hc         1 UNL       0.026500
     60 H10          5.1310     4.6510    -3.6770 hc         1 UNL       0.026500
     61 H11          7.4150     4.3750    -2.6150 hc         1 UNL       0.027300
     62 H12          7.3600     2.6170    -2.9930 hc         1 UNL       0.027300
     63 H13          5.2890     4.1270    -1.2510 hc         1 UNL       0.041100
     64 H14          5.7380     1.1160    -1.7800 hc         1 UNL       0.023800
     65 H15          4.2740     2.1060    -2.1740 hc         1 UNL       0.023800
     66 H16          4.6970     1.7850    -0.4620 hc         1 UNL       0.023800
     67 H17          8.2000     1.7360     1.7450 h1         1 UNL       0.070600
     68 H18          9.3530     2.8920     1.0170 h1         1 UNL       0.070600
     69 H19          9.8710     1.1170    -1.6340 h1         1 UNL       0.070600
     70 H20         11.2870     0.2600    -0.9900 h1         1 UNL       0.070600
     71 H21         13.8660     3.7630    -1.4770 hc         1 UNL       0.037700
     72 H22         14.0200     3.9570     0.2980 hc         1 UNL       0.037700
     73 H23         11.5600     4.8160    -1.3740 hc         1 UNL       0.027000
     74 H24         12.9100     5.8940    -0.9050 hc         1 UNL       0.027000
     75 H25         12.4480     5.5270     1.5170 hc         1 UNL       0.026500
     76 H26         11.1110     4.3870     1.1060 hc         1 UNL       0.026500
     77 H27          9.9600     6.2640    -0.1700 hc         1 UNL       0.026500
     78 H28         11.2650     7.3890     0.3860 hc         1 UNL       0.026500
     79 H29         10.6470     6.8810     2.7800 hc         1 UNL       0.026500
     80 H30          9.3330     5.7880     2.1970 hc         1 UNL       0.026500
     81 H31          8.3020     7.7520     0.9570 hc         1 UNL       0.026500
     82 H32          9.5900     8.8180     1.6430 hc         1 UNL       0.026500
     83 H33          8.8280     8.2520     3.9650 hc         1 UNL       0.026300
     84 H34          7.5370     7.1840     3.2830 hc         1 UNL       0.026300
     85 H35          7.8120    10.2260     2.8150 hc         1 UNL       0.023000
     86 H36          6.6100     9.4030     3.8790 hc         1 UNL       0.023000
     87 H37          6.5350     9.1650     2.0960 hc         1 UNL       0.023000
     88 H38         11.2580     1.5970     1.9080 h1         1 UNL       0.070600
     89 H39         11.5370    -0.1090     1.4860 h1         1 UNL       0.070600
     90 H40         10.3430    -1.3410     5.5520 hc         1 UNL       0.037700
     91 H41          8.9520    -2.2420     4.8580 hc         1 UNL       0.037700
     92 H42          9.0610     0.8370     5.2510 hc         1 UNL       0.027000
     93 H43          8.3190    -0.3300     6.4020 hc         1 UNL       0.027000
     94 H44          6.6950    -1.0940     4.6780 hc         1 UNL       0.026500
     95 H45          7.4420     0.0010     3.4500 hc         1 UNL       0.026500
     96 H46          6.8830     1.9890     4.8610 hc         1 UNL       0.026500
     97 H47          6.1170     0.9040     6.0870 hc         1 UNL       0.026500
     98 H48          4.4830     0.1110     4.3500 hc         1 UNL       0.026500
     99 H49          5.2430     1.2150     3.1380 hc         1 UNL       0.026500
    100 H50          4.6820     3.1840     4.6120 hc         1 UNL       0.026500
    101 H51          3.8930     2.0620     5.7880 hc         1 UNL       0.026500
    102 H52          2.2750     1.3380     4.0060 hc         1 UNL       0.026300
    103 H53          3.0580     2.4620     2.8360 hc         1 UNL       0.026300
    104 H54          1.6750     3.2750     5.4720 hc         1 UNL       0.023000
    105 H55          1.0110     3.4730     3.8060 hc         1 UNL       0.023000
    106 H56          2.4720     4.4060     4.3060 hc         1 UNL       0.023000
    107 H57          8.3020    -0.4120    -0.5730 h1         1 UNL       0.070600
    108 H58          8.2840    -0.6970     1.1940 h1         1 UNL       0.070600
    109 H59          9.6820    -5.0140    -0.2580 hc         1 UNL       0.037700
    110 H60         10.6750    -4.1570     0.9430 hc         1 UNL       0.037700
    111 H61         10.9750    -3.7130    -2.1050 hc         1 UNL       0.027000
    112 H62         11.7890    -5.0690    -1.2890 hc         1 UNL       0.027000
    113 H63         12.1980    -2.0960    -0.5260 hc         1 UNL       0.026500
    114 H64         13.2240    -3.0270    -1.6550 hc         1 UNL       0.026500
    115 H65         13.6140    -4.7370     0.2420 hc         1 UNL       0.026500
    116 H66         12.8430    -3.5680     1.3670 hc         1 UNL       0.026500
    117 H67         15.2540    -2.8820    -0.4410 hc         1 UNL       0.026500
    118 H68         15.4300    -3.5650     1.1870 hc         1 UNL       0.026500
    119 H69         13.5960    -1.1470     1.0980 hc         1 UNL       0.026500
    120 H70         15.2490    -0.8230     0.5150 hc         1 UNL       0.026500
    121 H71         15.1850    -0.3280     2.8660 hc         1 UNL       0.026300
    122 H72         16.1880    -1.8010     2.6580 hc         1 UNL       0.026300
    123 H73         13.2190    -1.7620     3.5150 hc         1 UNL       0.023000
    124 H74         14.6220    -1.9520     4.6190 hc         1 UNL       0.023000
    125 H75         14.2740    -3.2300     3.3910 hc         1 UNL       0.023000
@<TRIPOS>BOND
     1     1     2 1   
     2     2     3 1   
     3     3     4 1   
     4     4     5 1   
     5     5     6 1   
     6     6     7 1   
     7     7     8 1   
     8     7     9 1   
     9     9    10 1   
    10    10    11 1   
    11    11    12 1   
    12    12    13 1   
    13    13    14 1   
    14    14    15 1   
    15    15    16 1   
    16    16    17 1   
    17    17    18 1   
    18    18    19 1   
    19    19    20 1   
    20    20    21 1   
    21    21    22 1   
    22    22    23 1   
    23    15    24 2   
    24    12    25 1   
    25    25    26 1   
    26    26    27 1   
    27    27    28 1   
    28    28    29 1   
    29    29    30 1   
    30    30    31 1   
    31    31    32 1   
    32    32    33 1   
    33    33    34 1   
    34    34    35 1   
    35    27    36 2   
    36    12    37 1   
    37    37    38 1   
    38    38    39 1   
    39    39    40 1   
    40    40    41 1   
    41    41    42 1   
    42    42    43 1   
    43    43    44 1   
    44    44    45 1   
    45    45    46 1   
    46    46    47 1   
    47    39    48 2   
    48     9    49 2   
    49     1    50 1   
    50     1    51 1   
    51     1    52 1   
    52     2    53 1   
    53     2    54 1   
    54     3    55 1   
    55     3    56 1   
    56     4    57 1   
    57     4    58 1   
    58     5    59 1   
    59     5    60 1   
    60     6    61 1   
    61     6    62 1   
    62     7    63 1   
    63     8    64 1   
    64     8    65 1   
    65     8    66 1   
    66    11    67 1   
    67    11    68 1   
    68    13    69 1   
    69    13    70 1   
    70    16    71 1   
    71    16    72 1   
    72    17    73 1   
    73    17    74 1   
    74    18    75 1   
    75    18    76 1   
    76    19    77 1   
    77    19    78 1   
    78    20    79 1   
    79    20    80 1   
    80    21    81 1   
    81    21    82 1   
    82    22    83 1   
    83    22    84 1   
    84    23    85 1   
    85    23    86 1   
    86    23    87 1   
    87    25    88 1   
    88    25    89 1   
    89    28    90 1   
    90    28    91 1   
    91    29    92 1   
    92    29    93 1   
    93    30    94 1   
    94    30    95 1   
    95    31    96 1   
    96    31    97 1   
    97    32    98 1   
    98    32    99 1   
    99    33   100 1   
   100    33   101 1   
   101    34   102 1   
   102    34   103 1   
   103    35   104 1   
   104    35   105 1   
   105    35   106 1   
   106    37   107 1   
   107    37   108 1   
   108    40   109 1   
   109    40   110 1   
   110    41   111 1   
   111    41   112 1   
   112    42   113 1   
   113    42   114 1   
   114    43   115 1   
   115    43   116 1   
   116    44   117 1   
   117    44   118 1   
   118    45   119 1   
   119    45   120 1   
   120    46   121 1   
   121    46   122 1   
   122    47   123 1   
   123    47   124 1   
   124    47   125 1   
@<TRIPOS>SUBSTRUCTURE
     1 UNL         1 TEMP              0 ****  ****    0 ROOT
