@<TRIPOS>MOLECULE
*****
  125   124     1     0     0
SMALL
No Charge or Current Charge


@<TRIPOS>ATOM
      1 C            5.5370    -2.8980    -8.8740 c3         1 UNL      -0.065300
      2 C1           4.6000    -3.3510    -7.7560 c3         1 UNL      -0.055900
      3 C2           5.3420    -4.0110    -6.5820 c3         1 UNL      -0.053300
      4 C3           6.3170    -3.0860    -5.8350 c3         1 UNL      -0.053000
      5 C4           5.6180    -1.9000    -5.1560 c3         1 UNL      -0.052300
      6 C5           6.5920    -1.1360    -4.2460 c3         1 UNL      -0.040400
      7 C6           5.9710     0.1450    -3.6510 c3         1 UNL       0.053600
      8 C7           4.8590    -0.1620    -2.6410 c3         1 UNL      -0.052300
      9 C8           7.0350     0.9600    -2.9750 c          1 UNL       0.310000
     10 O            7.8560     0.3600    -2.0130 os         1 UNL      -0.463500
     11 C9           8.7860     1.0990    -1.2270 c3         1 UNL       0.107500
     12 C10          9.6950     0.1490    -0.4040 c3         1 UNL       0.106700
     13 C11         10.4350    -0.8310    -1.3610 c3         1 UNL       0.107500
     14 O1          11.1570    -0.1600    -2.3980 os         1 UNL      -0.463700
     15 C12         12.5100     0.1950    -2.3120 c          1 UNL       0.307100
     16 C13         13.2450     0.6770    -3.5300 c3         1 UNL       0.044900
     17 C14         12.3350     1.3850    -4.5440 c3         1 UNL      -0.043000
     18 C15         11.8220     2.7340    -4.0190 c3         1 UNL      -0.052600
     19 C16         10.9300     3.4110    -5.0660 c3         1 UNL      -0.053000
     20 C17         10.3640     4.7360    -4.5450 c3         1 UNL      -0.053100
     21 C18          9.5510     5.4490    -5.6310 c3         1 UNL      -0.053300
     22 C19          8.9440     6.7530    -5.1010 c3         1 UNL      -0.055900
     23 C20          8.1690     7.4820    -6.1960 c3         1 UNL      -0.065300
     24 O2          13.1450     0.0480    -1.2340 o          1 UNL      -0.250900
     25 C21         10.7160     1.0110     0.3800 c3         1 UNL       0.107500
     26 O3          10.0570     1.8380     1.3370 os         1 UNL      -0.463700
     27 C22         10.7360     2.7780     2.1180 c          1 UNL       0.307100
     28 C23         10.0140     3.5640     3.1750 c3         1 UNL       0.044900
     29 C24          8.5840     3.9730     2.7720 c3         1 UNL      -0.043000
     30 C25          7.5250     2.8570     2.8970 c3         1 UNL      -0.052600
     31 C26          7.3530     2.2520     4.3070 c3         1 UNL      -0.053000
     32 C27          7.0180     3.2680     5.4140 c3         1 UNL      -0.053100
     33 C28          5.6550     3.9430     5.2030 c3         1 UNL      -0.053300
     34 C29          5.3050     4.8550     6.3840 c3         1 UNL      -0.055900
     35 C30          3.9300     5.4870     6.2010 c3         1 UNL      -0.065300
     36 O4          11.9800     2.9350     1.9790 o          1 UNL      -0.250900
     37 C31          8.8160    -0.6800     0.5790 c3         1 UNL       0.107500
     38 O5           9.5730    -1.6630     1.2900 os         1 UNL      -0.463500
     39 C32         10.1380    -1.4650     2.5570 c          1 UNL       0.310000
     40 C33         10.8410    -2.5990     3.2590 c3         1 UNL       0.053600
     41 C34          9.8200    -3.3960     4.0780 c3         1 UNL      -0.052300
     42 C35         11.5860    -3.5290     2.2760 c3         1 UNL      -0.040400
     43 C36         12.7770    -2.8320     1.5990 c3         1 UNL      -0.052300
     44 C37         13.5130    -3.7960     0.6500 c3         1 UNL      -0.053000
     45 C38         14.4520    -3.0750    -0.3350 c3         1 UNL      -0.053300
     46 C39         15.5320    -2.2040     0.3320 c3         1 UNL      -0.055900
     47 C40         16.5400    -3.0250     1.1350 c3         1 UNL      -0.065300
     48 O6          10.0060    -0.3640     3.1510 o          1 UNL      -0.250500
     49 O7           7.1790     2.1760    -3.2750 o          1 UNL      -0.250500
     50 H            4.9390    -2.5710    -9.7490 hc         1 UNL       0.023000
     51 H1           6.1990    -3.7310    -9.1900 hc         1 UNL       0.023000
     52 H2           6.1570    -2.0390    -8.5470 hc         1 UNL       0.023000
     53 H3           3.8950    -4.0970    -8.1800 hc         1 UNL       0.026300
     54 H4           3.9910    -2.4930    -7.4050 hc         1 UNL       0.026300
     55 H5           5.9060    -4.8910    -6.9620 hc         1 UNL       0.026500
     56 H6           4.5890    -4.3970    -5.8610 hc         1 UNL       0.026500
     57 H7           7.1060    -2.7210    -6.5230 hc         1 UNL       0.026500
     58 H8           6.8260    -3.6950    -5.0570 hc         1 UNL       0.026500
     59 H9           4.7650    -2.2800    -4.5560 hc         1 UNL       0.026500
     60 H10          5.2320    -1.2080    -5.9330 hc         1 UNL       0.026500
     61 H11          7.4810    -0.8510    -4.8500 hc         1 UNL       0.027300
     62 H12          6.9380    -1.8060    -3.4280 hc         1 UNL       0.027300
     63 H13          5.5360     0.7510    -4.4760 hc         1 UNL       0.041100
     64 H14          5.2260    -0.8390    -1.8420 hc         1 UNL       0.023800
     65 H15          3.9900    -0.6320    -3.1420 hc         1 UNL       0.023800
     66 H16          4.4990     0.7770    -2.1710 hc         1 UNL       0.023800
     67 H17          8.2220     1.7780    -0.5500 h1         1 UNL       0.070600
     68 H18          9.4080     1.7260    -1.8990 h1         1 UNL       0.070600
     69 H19          9.6860    -1.4900    -1.8520 h1         1 UNL       0.070600
     70 H20         11.1140    -1.5050    -0.8020 h1         1 UNL       0.070600
     71 H21         13.7070    -0.2050    -4.0240 hc         1 UNL       0.037700
     72 H22         14.0660     1.3630    -3.2240 hc         1 UNL       0.037700
     73 H23         11.4790     0.7240    -4.8130 hc         1 UNL       0.027000
     74 H24         12.9260     1.5630    -5.4720 hc         1 UNL       0.027000
     75 H25         12.6860     3.3970    -3.7900 hc         1 UNL       0.026500
     76 H26         11.2430     2.5790    -3.0860 hc         1 UNL       0.026500
     77 H27         10.0850     2.7360    -5.3250 hc         1 UNL       0.026500
     78 H28         11.5260     3.6010    -5.9850 hc         1 UNL       0.026500
     79 H29         11.1970     5.3960    -4.2170 hc         1 UNL       0.026500
     80 H30          9.7090     4.5350    -3.6650 hc         1 UNL       0.026500
     81 H31          8.7390     4.7780    -5.9800 hc         1 UNL       0.026500
     82 H32         10.2160     5.6740    -6.4920 hc         1 UNL       0.026500
     83 H33          9.7520     7.4200    -4.7270 hc         1 UNL       0.026300
     84 H34          8.2510     6.5300    -4.2600 hc         1 UNL       0.026300
     85 H35          8.8470     7.7550    -7.0330 hc         1 UNL       0.023000
     86 H36          7.7240     8.4130    -5.7820 hc         1 UNL       0.023000
     87 H37          7.3490     6.8400    -6.5830 hc         1 UNL       0.023000
     88 H38         11.2760     1.6640    -0.3230 h1         1 UNL       0.070600
     89 H39         11.4520     0.3640     0.9020 h1         1 UNL       0.070600
     90 H40         10.5880     4.5000     3.3560 hc         1 UNL       0.037700
     91 H41         10.0260     3.0010     4.1280 hc         1 UNL       0.037700
     92 H42          8.5930     4.3390     1.7210 hc         1 UNL       0.027000
     93 H43          8.2700     4.8400     3.3930 hc         1 UNL       0.027000
     94 H44          7.7630     2.0390     2.1940 hc         1 UNL       0.026500
     95 H45          6.5510     3.2600     2.5540 hc         1 UNL       0.026500
     96 H46          8.2730     1.7020     4.5910 hc         1 UNL       0.026500
     97 H47          6.5470     1.4860     4.2650 hc         1 UNL       0.026500
     98 H48          7.8180     4.0330     5.4930 hc         1 UNL       0.026500
     99 H49          6.9980     2.7180     6.3810 hc         1 UNL       0.026500
    100 H50          4.8690     3.1620     5.0960 hc         1 UNL       0.026500
    101 H51          5.6760     4.5550     4.2770 hc         1 UNL       0.026500
    102 H52          6.0640     5.6610     6.4710 hc         1 UNL       0.026300
    103 H53          5.3080     4.2690     7.3270 hc         1 UNL       0.026300
    104 H54          3.9000     6.0810     5.2620 hc         1 UNL       0.023000
    105 H55          3.7090     6.1570     7.0580 hc         1 UNL       0.023000
    106 H56          3.1490     4.6990     6.1610 hc         1 UNL       0.023000
    107 H57          8.0370    -1.2220    -0.0000 h1         1 UNL       0.070600
    108 H58          8.2650    -0.0270     1.2890 h1         1 UNL       0.070600
    109 H59         11.5830    -2.1710     3.9700 hc         1 UNL       0.041100
    110 H60          9.0660    -3.8730     3.4120 hc         1 UNL       0.023800
    111 H61          9.2950    -2.7250     4.7940 hc         1 UNL       0.023800
    112 H62         10.3350    -4.1880     4.6650 hc         1 UNL       0.023800
    113 H63         10.8780    -3.9080     1.5050 hc         1 UNL       0.027300
    114 H64         11.9730    -4.4110     2.8360 hc         1 UNL       0.027300
    115 H65         13.4840    -2.4800     2.3830 hc         1 UNL       0.026500
    116 H66         12.4180    -1.9490     1.0300 hc         1 UNL       0.026500
    117 H67         12.7690    -4.3610     0.0430 hc         1 UNL       0.026500
    118 H68         14.0850    -4.5430     1.2440 hc         1 UNL       0.026500
    119 H69         13.8400    -2.4360    -1.0080 hc         1 UNL       0.026500
    120 H70         14.9450    -3.8360    -0.9810 hc         1 UNL       0.026500
    121 H71         15.0700    -1.4330     0.9840 hc         1 UNL       0.026300
    122 H72         16.0830    -1.6630    -0.4680 hc         1 UNL       0.026300
    123 H73         16.0510    -3.4980     2.0120 hc         1 UNL       0.023000
    124 H74         17.3450    -2.3580     1.5070 hc         1 UNL       0.023000
    125 H75         16.9980    -3.8100     0.4970 hc         1 UNL       0.023000
@<TRIPOS>BOND
     1     1     2 1   
     2     2     3 1   
     3     3     4 1   
     4     4     5 1   
     5     5     6 1   
     6     6     7 1   
     7     7     8 1   
     8     7     9 1   
     9     9    10 1   
    10    10    11 1   
    11    11    12 1   
    12    12    13 1   
    13    13    14 1   
    14    14    15 1   
    15    15    16 1   
    16    16    17 1   
    17    17    18 1   
    18    18    19 1   
    19    19    20 1   
    20    20    21 1   
    21    21    22 1   
    22    22    23 1   
    23    15    24 2   
    24    12    25 1   
    25    25    26 1   
    26    26    27 1   
    27    27    28 1   
    28    28    29 1   
    29    29    30 1   
    30    30    31 1   
    31    31    32 1   
    32    32    33 1   
    33    33    34 1   
    34    34    35 1   
    35    27    36 2   
    36    12    37 1   
    37    37    38 1   
    38    38    39 1   
    39    39    40 1   
    40    40    41 1   
    41    40    42 1   
    42    42    43 1   
    43    43    44 1   
    44    44    45 1   
    45    45    46 1   
    46    46    47 1   
    47    39    48 2   
    48     9    49 2   
    49     1    50 1   
    50     1    51 1   
    51     1    52 1   
    52     2    53 1   
    53     2    54 1   
    54     3    55 1   
    55     3    56 1   
    56     4    57 1   
    57     4    58 1   
    58     5    59 1   
    59     5    60 1   
    60     6    61 1   
    61     6    62 1   
    62     7    63 1   
    63     8    64 1   
    64     8    65 1   
    65     8    66 1   
    66    11    67 1   
    67    11    68 1   
    68    13    69 1   
    69    13    70 1   
    70    16    71 1   
    71    16    72 1   
    72    17    73 1   
    73    17    74 1   
    74    18    75 1   
    75    18    76 1   
    76    19    77 1   
    77    19    78 1   
    78    20    79 1   
    79    20    80 1   
    80    21    81 1   
    81    21    82 1   
    82    22    83 1   
    83    22    84 1   
    84    23    85 1   
    85    23    86 1   
    86    23    87 1   
    87    25    88 1   
    88    25    89 1   
    89    28    90 1   
    90    28    91 1   
    91    29    92 1   
    92    29    93 1   
    93    30    94 1   
    94    30    95 1   
    95    31    96 1   
    96    31    97 1   
    97    32    98 1   
    98    32    99 1   
    99    33   100 1   
   100    33   101 1   
   101    34   102 1   
   102    34   103 1   
   103    35   104 1   
   104    35   105 1   
   105    35   106 1   
   106    37   107 1   
   107    37   108 1   
   108    40   109 1   
   109    41   110 1   
   110    41   111 1   
   111    41   112 1   
   112    42   113 1   
   113    42   114 1   
   114    43   115 1   
   115    43   116 1   
   116    44   117 1   
   117    44   118 1   
   118    45   119 1   
   119    45   120 1   
   120    46   121 1   
   121    46   122 1   
   122    47   123 1   
   123    47   124 1   
   124    47   125 1   
@<TRIPOS>SUBSTRUCTURE
     1 UNL         1 TEMP              0 ****  ****    0 ROOT
