@<TRIPOS>MOLECULE
*****
  125   124     1     0     0
SMALL
No Charge or Current Charge


@<TRIPOS>ATOM
      1 C            1.8080     5.7800     1.6130 c3         1 UNL      -0.065300
      2 C1           2.8480     6.8720     1.8630 c3         1 UNL      -0.055900
      3 C2           3.6330     6.6700     3.1730 c3         1 UNL      -0.053300
      4 C3           4.4260     5.3540     3.2530 c3         1 UNL      -0.053000
      5 C4           5.4900     5.2320     2.1470 c3         1 UNL      -0.052300
      6 C5           6.4600     4.0570     2.3780 c3         1 UNL      -0.040400
      7 C6           5.7950     2.6620     2.4160 c3         1 UNL       0.053600
      8 C7           5.0390     2.3340     1.1200 c3         1 UNL      -0.052300
      9 C8           6.8460     1.6170     2.6630 c          1 UNL       0.310000
     10 O            7.7560     1.3020     1.6480 os         1 UNL      -0.463500
     11 C9           8.7280     0.2690     1.7780 c3         1 UNL       0.107500
     12 C10          9.6190     0.1840     0.5120 c3         1 UNL       0.106700
     13 C11         10.3010     1.5590     0.2530 c3         1 UNL       0.107500
     14 O1          11.0820     2.0050     1.3630 os         1 UNL      -0.463700
     15 C12         12.4630     1.7920     1.4840 c          1 UNL       0.307100
     16 C13         13.2390     2.4520     2.5870 c3         1 UNL       0.044900
     17 C14         12.3830     2.7960     3.8140 c3         1 UNL      -0.043000
     18 C15         11.9090     1.5400     4.5610 c3         1 UNL      -0.052600
     19 C16         11.0530     1.9270     5.7730 c3         1 UNL      -0.053000
     20 C17         10.4950     0.6860     6.4780 c3         1 UNL      -0.053100
     21 C18          9.6870     1.0860     7.7180 c3         1 UNL      -0.053300
     22 C19          9.0990    -0.1440     8.4160 c3         1 UNL      -0.055900
     23 C20          8.3160     0.2520     9.6630 c3         1 UNL      -0.065300
     24 O2          13.0850     1.1030     0.6290 o          1 UNL      -0.250900
     25 C21         10.6880    -0.9170     0.7340 c3         1 UNL       0.107500
     26 O3          10.0880    -2.2100     0.8030 os         1 UNL      -0.463500
     27 C22          9.9280    -2.9460     1.9820 c          1 UNL       0.310000
     28 C23          9.1270    -4.2200     1.9580 c3         1 UNL       0.053600
     29 C24          7.6390    -3.8780     2.0950 c3         1 UNL      -0.052300
     30 C25          9.3720    -5.0370     0.6670 c3         1 UNL      -0.040400
     31 C26         10.8440    -5.4250     0.4280 c3         1 UNL      -0.052300
     32 C27         11.3780    -6.4090     1.4800 c3         1 UNL      -0.053000
     33 C28         12.7900    -6.8880     1.1150 c3         1 UNL      -0.053300
     34 C29         13.3280    -7.8670     2.1660 c3         1 UNL      -0.055900
     35 C30         14.7380    -8.3350     1.8150 c3         1 UNL      -0.065300
     36 O4          10.4050    -2.5310     3.0720 o          1 UNL      -0.250500
     37 C31          8.7240    -0.1680    -0.7120 c3         1 UNL       0.107500
     38 O5           9.4490    -0.1160    -1.9440 os         1 UNL      -0.463500
     39 C32         10.0240    -1.2270    -2.5740 c          1 UNL       0.310000
     40 C33         10.7090    -1.0630    -3.9030 c3         1 UNL       0.053600
     41 C34          9.6530    -0.9200    -5.0030 c3         1 UNL      -0.052300
     42 C35         11.6680     0.1500    -3.9230 c3         1 UNL      -0.040400
     43 C36         12.8010     0.0910    -2.8810 c3         1 UNL      -0.052300
     44 C37         13.7260    -1.1360    -2.9830 c3         1 UNL      -0.053000
     45 C38         14.4300    -1.3070    -4.3430 c3         1 UNL      -0.053300
     46 C39         15.2860    -0.1070    -4.7810 c3         1 UNL      -0.055900
     47 C40         16.4310     0.1910    -3.8150 c3         1 UNL      -0.065300
     48 O6           9.9090    -2.3800    -2.0730 o          1 UNL      -0.250500
     49 O7           6.9120     1.0430     3.7840 o          1 UNL      -0.250500
     50 H            1.1810     6.0620     0.7420 hc         1 UNL       0.023000
     51 H1           1.1510     5.6580     2.4990 hc         1 UNL       0.023000
     52 H2           2.3020     4.8140     1.3810 hc         1 UNL       0.023000
     53 H3           2.3210     7.8480     1.9240 hc         1 UNL       0.026300
     54 H4           3.5420     6.9320     0.9990 hc         1 UNL       0.026300
     55 H5           2.9240     6.7070     4.0280 hc         1 UNL       0.026500
     56 H6           4.3380     7.5220     3.2970 hc         1 UNL       0.026500
     57 H7           3.7220     4.4960     3.2080 hc         1 UNL       0.026500
     58 H8           4.9310     5.3200     4.2440 hc         1 UNL       0.026500
     59 H9           6.0940     6.1670     2.1220 hc         1 UNL       0.026500
     60 H10          5.0080     5.1250     1.1530 hc         1 UNL       0.026500
     61 H11          7.0020     4.2280     3.3360 hc         1 UNL       0.027300
     62 H12          7.2220     4.0750     1.5670 hc         1 UNL       0.027300
     63 H13          5.0720     2.6220     3.2580 hc         1 UNL       0.041100
     64 H14          5.6890     2.4910     0.2330 hc         1 UNL       0.023800
     65 H15          4.1360     2.9720     1.0250 hc         1 UNL       0.023800
     66 H16          4.7000     1.2770     1.1330 hc         1 UNL       0.023800
     67 H17          8.2000    -0.6960     1.9360 h1         1 UNL       0.070600
     68 H18          9.3540     0.4660     2.6740 h1         1 UNL       0.070600
     69 H19          9.5170     2.3240     0.0650 h1         1 UNL       0.070600
     70 H20         10.9230     1.5340    -0.6660 h1         1 UNL       0.070600
     71 H21         13.6720     3.3920     2.1860 hc         1 UNL       0.037700
     72 H22         14.0830     1.7970     2.8950 hc         1 UNL       0.037700
     73 H23         11.5090     3.4130     3.5030 hc         1 UNL       0.027000
     74 H24         13.0000     3.4130     4.5070 hc         1 UNL       0.027000
     75 H25         12.7940     0.9550     4.9060 hc         1 UNL       0.026500
     76 H26         11.3080     0.9020     3.8770 hc         1 UNL       0.026500
     77 H27         10.2030     2.5680     5.4400 hc         1 UNL       0.026500
     78 H28         11.6770     2.5100     6.4900 hc         1 UNL       0.026500
     79 H29         11.3340     0.0240     6.7850 hc         1 UNL       0.026500
     80 H30          9.8390     0.1260     5.7750 hc         1 UNL       0.026500
     81 H31          8.8600     1.7660     7.4170 hc         1 UNL       0.026500
     82 H32         10.3480     1.6290     8.4300 hc         1 UNL       0.026500
     83 H33          9.9150    -0.8390     8.7090 hc         1 UNL       0.026300
     84 H34          8.4190    -0.6800     7.7210 hc         1 UNL       0.026300
     85 H35          8.9820     0.7590    10.3920 hc         1 UNL       0.023000
     86 H36          7.8920    -0.6540    10.1450 hc         1 UNL       0.023000
     87 H37          7.4820     0.9340     9.3970 hc         1 UNL       0.023000
     88 H38         11.2830    -0.7100     1.6490 h1         1 UNL       0.070600
     89 H39         11.4030    -0.9260    -0.1090 h1         1 UNL       0.070600
     90 H40          9.4050    -4.8410     2.8350 hc         1 UNL       0.041100
     91 H41          7.3000    -3.2430     1.2460 hc         1 UNL       0.023800
     92 H42          7.4580    -3.3290     3.0450 hc         1 UNL       0.023800
     93 H43          7.0310    -4.8080     2.1130 hc         1 UNL       0.023800
     94 H44          9.0200    -4.4510    -0.2110 hc         1 UNL       0.027300
     95 H45          8.7580    -5.9650     0.6990 hc         1 UNL       0.027300
     96 H46         11.4840    -4.5160     0.4030 hc         1 UNL       0.026500
     97 H47         10.9080    -5.9020    -0.5760 hc         1 UNL       0.026500
     98 H48         10.6970    -7.2870     1.5490 hc         1 UNL       0.026500
     99 H49         11.4180    -5.9070     2.4720 hc         1 UNL       0.026500
    100 H50         13.4700    -6.0100     1.0480 hc         1 UNL       0.026500
    101 H51         12.7660    -7.3920     0.1250 hc         1 UNL       0.026500
    102 H52         12.6600    -8.7540     2.2330 hc         1 UNL       0.026300
    103 H53         13.3530    -7.3720     3.1620 hc         1 UNL       0.026300
    104 H54         14.7390    -8.8540     0.8340 hc         1 UNL       0.023000
    105 H55         15.0980    -9.0440     2.5910 hc         1 UNL       0.023000
    106 H56         15.4330    -7.4700     1.7750 hc         1 UNL       0.023000
    107 H57          7.9070     0.5800    -0.7900 h1         1 UNL       0.070600
    108 H58          8.2260    -1.1540    -0.5860 h1         1 UNL       0.070600
    109 H59         11.2890    -1.9820    -4.1310 hc         1 UNL       0.041100
    110 H60          9.0310    -0.0120    -4.8350 hc         1 UNL       0.023800
    111 H61          8.9890    -1.8110    -5.0170 hc         1 UNL       0.023800
    112 H62         10.1440    -0.8370    -5.9980 hc         1 UNL       0.023800
    113 H63         11.0850     1.0790    -3.7420 hc         1 UNL       0.027300
    114 H64         12.1140     0.2540    -4.9340 hc         1 UNL       0.027300
    115 H65         12.3590     0.1040    -1.8680 hc         1 UNL       0.026500
    116 H66         13.4050     1.0200    -2.9560 hc         1 UNL       0.026500
    117 H67         13.1480    -2.0550    -2.7620 hc         1 UNL       0.026500
    118 H68         14.4910    -1.0670    -2.1830 hc         1 UNL       0.026500
    119 H69         13.6720    -1.5160    -5.1280 hc         1 UNL       0.026500
    120 H70         15.0790    -2.2080    -4.2890 hc         1 UNL       0.026500
    121 H71         14.6570     0.7980    -4.9070 hc         1 UNL       0.026300
    122 H72         15.7220    -0.3380    -5.7760 hc         1 UNL       0.026300
    123 H73         16.0430     0.5680    -2.8480 hc         1 UNL       0.023000
    124 H74         17.0880     0.9730    -4.2490 hc         1 UNL       0.023000
    125 H75         17.0390    -0.7210    -3.6390 hc         1 UNL       0.023000
@<TRIPOS>BOND
     1     1     2 1   
     2     2     3 1   
     3     3     4 1   
     4     4     5 1   
     5     5     6 1   
     6     6     7 1   
     7     7     8 1   
     8     7     9 1   
     9     9    10 1   
    10    10    11 1   
    11    11    12 1   
    12    12    13 1   
    13    13    14 1   
    14    14    15 1   
    15    15    16 1   
    16    16    17 1   
    17    17    18 1   
    18    18    19 1   
    19    19    20 1   
    20    20    21 1   
    21    21    22 1   
    22    22    23 1   
    23    15    24 2   
    24    12    25 1   
    25    25    26 1   
    26    26    27 1   
    27    27    28 1   
    28    28    29 1   
    29    28    30 1   
    30    30    31 1   
    31    31    32 1   
    32    32    33 1   
    33    33    34 1   
    34    34    35 1   
    35    27    36 2   
    36    12    37 1   
    37    37    38 1   
    38    38    39 1   
    39    39    40 1   
    40    40    41 1   
    41    40    42 1   
    42    42    43 1   
    43    43    44 1   
    44    44    45 1   
    45    45    46 1   
    46    46    47 1   
    47    39    48 2   
    48     9    49 2   
    49     1    50 1   
    50     1    51 1   
    51     1    52 1   
    52     2    53 1   
    53     2    54 1   
    54     3    55 1   
    55     3    56 1   
    56     4    57 1   
    57     4    58 1   
    58     5    59 1   
    59     5    60 1   
    60     6    61 1   
    61     6    62 1   
    62     7    63 1   
    63     8    64 1   
    64     8    65 1   
    65     8    66 1   
    66    11    67 1   
    67    11    68 1   
    68    13    69 1   
    69    13    70 1   
    70    16    71 1   
    71    16    72 1   
    72    17    73 1   
    73    17    74 1   
    74    18    75 1   
    75    18    76 1   
    76    19    77 1   
    77    19    78 1   
    78    20    79 1   
    79    20    80 1   
    80    21    81 1   
    81    21    82 1   
    82    22    83 1   
    83    22    84 1   
    84    23    85 1   
    85    23    86 1   
    86    23    87 1   
    87    25    88 1   
    88    25    89 1   
    89    28    90 1   
    90    29    91 1   
    91    29    92 1   
    92    29    93 1   
    93    30    94 1   
    94    30    95 1   
    95    31    96 1   
    96    31    97 1   
    97    32    98 1   
    98    32    99 1   
    99    33   100 1   
   100    33   101 1   
   101    34   102 1   
   102    34   103 1   
   103    35   104 1   
   104    35   105 1   
   105    35   106 1   
   106    37   107 1   
   107    37   108 1   
   108    40   109 1   
   109    41   110 1   
   110    41   111 1   
   111    41   112 1   
   112    42   113 1   
   113    42   114 1   
   114    43   115 1   
   115    43   116 1   
   116    44   117 1   
   117    44   118 1   
   118    45   119 1   
   119    45   120 1   
   120    46   121 1   
   121    46   122 1   
   122    47   123 1   
   123    47   124 1   
   124    47   125 1   
@<TRIPOS>SUBSTRUCTURE
     1 UNL         1 TEMP              0 ****  ****    0 ROOT
