@<TRIPOS>MOLECULE
*****
  125   124     1     0     0
SMALL
No Charge or Current Charge


@<TRIPOS>ATOM
      1 C            4.4360     4.8910     5.3940 c3         1 UNL      -0.065300
      2 C1           3.2890     4.2010     4.6550 c3         1 UNL      -0.055900
      3 C2           3.6400     3.8370     3.2010 c3         1 UNL      -0.053300
      4 C3           4.8100     2.8520     3.0470 c3         1 UNL      -0.053000
      5 C4           4.5550     1.4920     3.7180 c3         1 UNL      -0.052300
      6 C5           5.6010     0.4260     3.3390 c3         1 UNL      -0.040400
      7 C6           7.0600     0.7880     3.7020 c3         1 UNL       0.053600
      8 C7           7.2400     1.0550     5.2080 c3         1 UNL      -0.052300
      9 C8           7.9840    -0.3000     3.2160 c          1 UNL       0.310000
     10 O            8.0720    -0.5410     1.8390 os         1 UNL      -0.463500
     11 C9           9.0370    -1.4070     1.2430 c3         1 UNL       0.107500
     12 C10         10.1120    -0.6020     0.4660 c3         1 UNL       0.106700
     13 C11         10.7770     0.4550     1.3920 c3         1 UNL       0.107500
     14 O1          11.3680    -0.1270     2.5540 os         1 UNL      -0.463500
     15 C12         12.7390    -0.3720     2.6930 c          1 UNL       0.310000
     16 C13         13.2970    -0.7850     4.0280 c3         1 UNL       0.053600
     17 C14         13.7460     0.4650     4.7900 c3         1 UNL      -0.052300
     18 C15         12.2810    -1.5810     4.8740 c3         1 UNL      -0.040400
     19 C16         11.9030    -2.9270     4.2380 c3         1 UNL      -0.052300
     20 C17         10.8910    -3.6750     5.1170 c3         1 UNL      -0.053000
     21 C18         10.4030    -4.9600     4.4350 c3         1 UNL      -0.053300
     22 C19          9.3670    -5.6810     5.3050 c3         1 UNL      -0.055900
     23 C20          8.8670    -6.9550     4.6290 c3         1 UNL      -0.065300
     24 O2          13.5330    -0.1540     1.7330 o          1 UNL      -0.250500
     25 C21         11.2080    -1.5790    -0.0470 c3         1 UNL       0.107500
     26 O3          10.6700    -2.6100    -0.8820 os         1 UNL      -0.463500
     27 C22         10.6880    -2.5690    -2.2850 c          1 UNL       0.310000
     28 C23         10.2220    -3.7560    -3.0890 c3         1 UNL       0.053600
     29 C24         11.4330    -4.6270    -3.4440 c3         1 UNL      -0.052300
     30 C25          9.1580    -4.5930    -2.3440 c3         1 UNL      -0.040400
     31 C26          7.8440    -3.8220    -2.1430 c3         1 UNL      -0.052300
     32 C27          6.8190    -4.6750    -1.3810 c3         1 UNL      -0.053000
     33 C28          5.5650    -3.8590    -1.0500 c3         1 UNL      -0.053300
     34 C29          4.5020    -4.7240    -0.3620 c3         1 UNL      -0.055900
     35 C30          3.2830    -3.8930     0.0200 c3         1 UNL      -0.065300
     36 O4          11.1580    -1.5660    -2.8890 o          1 UNL      -0.250500
     37 C31          9.4630     0.1200    -0.7520 c3         1 UNL       0.107500
     38 O5           8.5110     1.1120    -0.3580 os         1 UNL      -0.463500
     39 C32          8.8000     2.4780    -0.2410 c          1 UNL       0.310000
     40 C33          7.7020     3.4300     0.1400 c3         1 UNL       0.053600
     41 C34          8.1190     4.2700     1.3500 c3         1 UNL      -0.052300
     42 C35          7.3040     4.3410    -1.0440 c3         1 UNL      -0.040400
     43 C36          6.8930     3.5740    -2.3160 c3         1 UNL      -0.052300
     44 C37          5.5150     2.9010    -2.1810 c3         1 UNL      -0.053000
     45 C38          5.2270     1.9190    -3.3300 c3         1 UNL      -0.053300
     46 C39          6.0300     0.6030    -3.2560 c3         1 UNL      -0.055900
     47 C40          5.6660    -0.2640    -2.0470 c3         1 UNL      -0.065300
     48 O6           9.9660     2.9130    -0.4610 o          1 UNL      -0.250500
     49 O7           8.6700    -0.9790     4.0320 o          1 UNL      -0.250500
     50 H            4.0660     5.2600     6.3750 hc         1 UNL       0.023000
     51 H1           4.8140     5.7570     4.8060 hc         1 UNL       0.023000
     52 H2           5.2630     4.1750     5.5820 hc         1 UNL       0.023000
     53 H3           2.4220     4.8980     4.6340 hc         1 UNL       0.026300
     54 H4           2.9700     3.2990     5.2180 hc         1 UNL       0.026300
     55 H5           3.8920     4.7680     2.6460 hc         1 UNL       0.026500
     56 H6           2.7380     3.4030     2.7130 hc         1 UNL       0.026500
     57 H7           5.7340     3.3140     3.4500 hc         1 UNL       0.026500
     58 H8           4.9710     2.6910     1.9600 hc         1 UNL       0.026500
     59 H9           3.5580     1.1170     3.3990 hc         1 UNL       0.026500
     60 H10          4.5240     1.6050     4.8200 hc         1 UNL       0.026500
     61 H11          5.5290     0.2470     2.2440 hc         1 UNL       0.027300
     62 H12          5.3260    -0.5250     3.8440 hc         1 UNL       0.027300
     63 H13          7.3550     1.7040     3.1520 hc         1 UNL       0.041100
     64 H14          6.8780     0.1910     5.8030 hc         1 UNL       0.023800
     65 H15          6.6900     1.9670     5.5160 hc         1 UNL       0.023800
     66 H16          8.3100     1.2280     5.4430 hc         1 UNL       0.023800
     67 H17          8.4970    -2.0860     0.5520 h1         1 UNL       0.070600
     68 H18          9.5110    -2.0640     2.0040 h1         1 UNL       0.070600
     69 H19         10.0170     1.1760     1.7510 h1         1 UNL       0.070600
     70 H20         11.5250     1.0520     0.8220 h1         1 UNL       0.070600
     71 H21         14.1940    -1.4200     3.8580 hc         1 UNL       0.041100
     72 H22         12.8840     1.1320     4.9950 hc         1 UNL       0.023800
     73 H23         14.5030     1.0300     4.2030 hc         1 UNL       0.023800
     74 H24         14.2100     0.1790     5.7570 hc         1 UNL       0.023800
     75 H25         11.3650    -0.9700     5.0320 hc         1 UNL       0.027300
     76 H26         12.7270    -1.7800     5.8740 hc         1 UNL       0.027300
     77 H27         12.8190    -3.5460     4.1140 hc         1 UNL       0.026500
     78 H28         11.4590    -2.7560     3.2350 hc         1 UNL       0.026500
     79 H29         10.0140    -3.0160     5.3150 hc         1 UNL       0.026500
     80 H30         11.3680    -3.9280     6.0910 hc         1 UNL       0.026500
     81 H31         11.2700    -5.6330     4.2580 hc         1 UNL       0.026500
     82 H32          9.9440    -4.7050     3.4530 hc         1 UNL       0.026500
     83 H33          8.5020    -5.0100     5.4920 hc         1 UNL       0.026300
     84 H34          9.8200    -5.9500     6.2850 hc         1 UNL       0.026300
     85 H35          8.3960    -6.7160     3.6510 hc         1 UNL       0.023000
     86 H36          8.1110    -7.4440     5.2760 hc         1 UNL       0.023000
     87 H37          9.7130    -7.6570     4.4680 hc         1 UNL       0.023000
     88 H38         11.6840    -2.0820     0.8210 h1         1 UNL       0.070600
     89 H39         12.0170    -1.0220    -0.5740 h1         1 UNL       0.070600
     90 H40          9.7730    -3.3860    -4.0400 hc         1 UNL       0.041100
     91 H41         11.9120    -5.0250    -2.5230 hc         1 UNL       0.023800
     92 H42         12.1790    -4.0280    -4.0120 hc         1 UNL       0.023800
     93 H43         11.1170    -5.4800    -4.0840 hc         1 UNL       0.023800
     94 H44          9.5560    -4.9240    -1.3570 hc         1 UNL       0.027300
     95 H45          8.9350    -5.5090    -2.9380 hc         1 UNL       0.027300
     96 H46          7.4230    -3.5330    -3.1340 hc         1 UNL       0.026500
     97 H47          8.0440    -2.8940    -1.5690 hc         1 UNL       0.026500
     98 H48          7.2680    -5.0410    -0.4300 hc         1 UNL       0.026500
     99 H49          6.5360    -5.5540    -2.0040 hc         1 UNL       0.026500
    100 H50          5.1370    -3.4410    -1.9860 hc         1 UNL       0.026500
    101 H51          5.8400    -3.0180    -0.3770 hc         1 UNL       0.026500
    102 H52          4.9230    -5.1850     0.5560 hc         1 UNL       0.026300
    103 H53          4.1810    -5.5380    -1.0430 hc         1 UNL       0.026300
    104 H54          3.5620    -3.1150     0.7610 hc         1 UNL       0.023000
    105 H55          2.5090    -4.5490     0.4710 hc         1 UNL       0.023000
    106 H56          2.8510    -3.4020    -0.8780 hc         1 UNL       0.023000
    107 H57          8.9270    -0.6200    -1.3790 h1         1 UNL       0.070600
    108 H58         10.2460     0.5760    -1.3970 h1         1 UNL       0.070600
    109 H59          6.8240     2.8290     0.4510 hc         1 UNL       0.041100
    110 H60          8.9510     4.9570     1.0880 hc         1 UNL       0.023800
    111 H61          8.4590     3.6110     2.1760 hc         1 UNL       0.023800
    112 H62          7.2600     4.8650     1.7160 hc         1 UNL       0.023800
    113 H63          8.1680     4.9940    -1.3000 hc         1 UNL       0.027300
    114 H64          6.4680     5.0060    -0.7380 hc         1 UNL       0.027300
    115 H65          7.6810     2.8400    -2.5760 hc         1 UNL       0.026500
    116 H66          6.8480     4.2980    -3.1600 hc         1 UNL       0.026500
    117 H67          4.7420     3.7000    -2.2030 hc         1 UNL       0.026500
    118 H68          5.4030     2.3820    -1.2080 hc         1 UNL       0.026500
    119 H69          5.4470     2.4190    -4.3010 hc         1 UNL       0.026500
    120 H70          4.1400     1.6770    -3.3250 hc         1 UNL       0.026500
    121 H71          7.1250     0.7980    -3.2510 hc         1 UNL       0.026300
    122 H72          5.8110     0.0180    -4.1770 hc         1 UNL       0.026300
    123 H73          6.0020     0.2040    -1.0970 hc         1 UNL       0.023000
    124 H74          6.1890    -1.2400    -2.1420 hc         1 UNL       0.023000
    125 H75          4.5680    -0.4470    -2.0120 hc         1 UNL       0.023000
@<TRIPOS>BOND
     1     1     2 1   
     2     2     3 1   
     3     3     4 1   
     4     4     5 1   
     5     5     6 1   
     6     6     7 1   
     7     7     8 1   
     8     7     9 1   
     9     9    10 1   
    10    10    11 1   
    11    11    12 1   
    12    12    13 1   
    13    13    14 1   
    14    14    15 1   
    15    15    16 1   
    16    16    17 1   
    17    16    18 1   
    18    18    19 1   
    19    19    20 1   
    20    20    21 1   
    21    21    22 1   
    22    22    23 1   
    23    15    24 2   
    24    12    25 1   
    25    25    26 1   
    26    26    27 1   
    27    27    28 1   
    28    28    29 1   
    29    28    30 1   
    30    30    31 1   
    31    31    32 1   
    32    32    33 1   
    33    33    34 1   
    34    34    35 1   
    35    27    36 2   
    36    12    37 1   
    37    37    38 1   
    38    38    39 1   
    39    39    40 1   
    40    40    41 1   
    41    40    42 1   
    42    42    43 1   
    43    43    44 1   
    44    44    45 1   
    45    45    46 1   
    46    46    47 1   
    47    39    48 2   
    48     9    49 2   
    49     1    50 1   
    50     1    51 1   
    51     1    52 1   
    52     2    53 1   
    53     2    54 1   
    54     3    55 1   
    55     3    56 1   
    56     4    57 1   
    57     4    58 1   
    58     5    59 1   
    59     5    60 1   
    60     6    61 1   
    61     6    62 1   
    62     7    63 1   
    63     8    64 1   
    64     8    65 1   
    65     8    66 1   
    66    11    67 1   
    67    11    68 1   
    68    13    69 1   
    69    13    70 1   
    70    16    71 1   
    71    17    72 1   
    72    17    73 1   
    73    17    74 1   
    74    18    75 1   
    75    18    76 1   
    76    19    77 1   
    77    19    78 1   
    78    20    79 1   
    79    20    80 1   
    80    21    81 1   
    81    21    82 1   
    82    22    83 1   
    83    22    84 1   
    84    23    85 1   
    85    23    86 1   
    86    23    87 1   
    87    25    88 1   
    88    25    89 1   
    89    28    90 1   
    90    29    91 1   
    91    29    92 1   
    92    29    93 1   
    93    30    94 1   
    94    30    95 1   
    95    31    96 1   
    96    31    97 1   
    97    32    98 1   
    98    32    99 1   
    99    33   100 1   
   100    33   101 1   
   101    34   102 1   
   102    34   103 1   
   103    35   104 1   
   104    35   105 1   
   105    35   106 1   
   106    37   107 1   
   107    37   108 1   
   108    40   109 1   
   109    41   110 1   
   110    41   111 1   
   111    41   112 1   
   112    42   113 1   
   113    42   114 1   
   114    43   115 1   
   115    43   116 1   
   116    44   117 1   
   117    44   118 1   
   118    45   119 1   
   119    45   120 1   
   120    46   121 1   
   121    46   122 1   
   122    47   123 1   
   123    47   124 1   
   124    47   125 1   
@<TRIPOS>SUBSTRUCTURE
     1 UNL         1 TEMP              0 ****  ****    0 ROOT
